32
Lattice="10.0 0.0 0.0 0.0 10.0 0.0 0.0 0.0 10.0" Properties=species:S:1:pos:R:3 pbc="T T T"
Ar       0.00000000       0.00000000       0.00000000
Ar       0.00000000       2.50000000       2.50000000
Ar       2.50000000       0.00000000       2.50000000
Ar       2.50000000       2.50000000       0.00000000
Ar       0.00000000       0.00000000       5.00000000
Ar       0.00000000       2.50000000       7.50000000
Ar       2.50000000       0.00000000       7.50000000
Ar       2.50000000       2.50000000       5.00000000
Ar       0.00000000       5.00000000       0.00000000
Ar       0.00000000       7.50000000       2.50000000
Ar       2.50000000       5.00000000       2.50000000
Ar       2.50000000       7.50000000       0.00000000
Ar       0.00000000       5.00000000       5.00000000
Ar       0.00000000       7.50000000       7.50000000
Ar       2.50000000       5.00000000       7.50000000
Ar       2.50000000       7.50000000       5.00000000
Ar       5.00000000       0.00000000       0.00000000
Ar       5.00000000       2.50000000       2.50000000
Ar       7.50000000       0.00000000       2.50000000
Ar       7.50000000       2.50000000       0.00000000
Ar       5.00000000       0.00000000       5.00000000
Ar       5.00000000       2.50000000       7.50000000
Ar       7.50000000       0.00000000       7.50000000
Ar       7.50000000       2.50000000       5.00000000
Ar       5.00000000       5.00000000       0.00000000
Ar       5.00000000       7.50000000       2.50000000
Ar       7.50000000       5.00000000       2.50000000
Ar       7.50000000       7.50000000       0.00000000
Ar       5.00000000       5.00000000       5.00000000
Ar       5.00000000       7.50000000       7.50000000
Ar       7.50000000       5.00000000       7.50000000
Ar       7.50000000       7.50000000       5.00000000
